OPT_V9/2ts_w_storgae_myc/powerflow_results_t1.txt
Pandapower Network Debug Info
==================================================

BUS:
       vm_pu  va_degree      p_mw    q_mvar
0   1.002955   0.179718 -0.006979 -0.001885
1   1.004538   0.219927 -0.004010 -0.003727
2   1.000733   0.312482  0.001747  0.003157
3   0.999803   0.252371  0.002011  0.003472
4   1.004609   0.194433 -0.002638 -0.000256
5   0.999370   0.100183 -0.001623  0.000661
6   0.997784   0.110701  0.001028  0.001012
7   0.997672   0.044843  0.001573  0.002250
8   1.001175   0.069661 -0.005079  0.000798
9   0.999953   0.003017  0.000377  0.008720
10  0.999945   0.003360  0.001379  0.008745
11  0.999938   0.003630  0.004333  0.013023
12  0.999923   0.005240  0.001224  0.006750
13  0.999912   0.005649  0.005138  0.011599
14  0.999908   0.005904  0.001518  0.010302
15  0.999976   0.001876  0.000000  0.000000
16  0.999976   0.001877  0.000000  0.000000
17  0.999925   0.005125  0.000000  0.000000
18  0.999925   0.005128  0.000000  0.000000
19  1.000000   0.000000  0.001070 -0.036546
20  1.000000   0.000005  0.000000  0.000000
21  1.000000   0.000000 -0.001194 -0.038140
22  1.000000   0.000005  0.000000  0.000000
--------------------------------------------------

LINE:
    p_from_mw  q_from_mvar   p_to_mw  q_to_mvar         pl_mw       ql_mvar  i_from_ka   i_to_ka      i_ka  vm_from_pu  va_from_degree  vm_to_pu  va_to_degree  loading_percent
0   -0.001080     0.032546  0.001081  -0.032546  1.037242e-06  8.087549e-07   0.001253  0.001253  0.001253    1.000000        0.000005  0.999976      0.001876         0.544956
1    0.001184     0.034140 -0.001181  -0.034137  3.138905e-06  2.447456e-06   0.001315  0.001315  0.001315    1.000000        0.000005  0.999925      0.005125         0.571668
2    0.006090     0.030489 -0.006089  -0.030488  7.475448e-07  5.828730e-07   0.001197  0.001197  0.001197    0.999976        0.001876  0.999953      0.003017         0.520319
3    0.001224     0.006750 -0.001224  -0.006750  1.627634e-08  1.269093e-08   0.000264  0.000264  0.000264    0.999925        0.005125  0.999923      0.005240         0.114808
4    0.006656     0.021901 -0.006656  -0.021901  2.865375e-07  2.234180e-07   0.000881  0.000881  0.000881    0.999925        0.005125  0.999912      0.005649         0.383089
5   -0.007181     0.001057  0.007206  -0.001037  2.464175e-05  1.921358e-05   0.010477  0.010477  0.010477    0.999976        0.001877  1.002955      0.179718         4.555060
6   -0.000590     0.001677  0.000592  -0.001675  2.451925e-06  1.911807e-06   0.002566  0.002566  0.002566    0.999925        0.005128  0.999370      0.100183         1.115643
7    0.001578     0.002254 -0.001573  -0.002250  5.115122e-06  3.988345e-06   0.003972  0.003972  0.003972    0.999925        0.005128  0.997672      0.044843         1.726762
8   -0.007697     0.000556  0.007708  -0.000548  1.024184e-05  7.985728e-06   0.011140  0.011140  0.011140    0.999925        0.005128  1.001175      0.069661         4.843454
9   -0.005712    -0.021768  0.005712   0.021768  1.751716e-07  1.365842e-07   0.000866  0.000866  0.000866    0.999945        0.003360  0.999953      0.003017         0.376639
10  -0.004333    -0.013023  0.004333   0.013023  9.213525e-08  7.183937e-08   0.000528  0.000528  0.000528    0.999938        0.003630  0.999945      0.003360         0.229694
11  -0.001518    -0.010302  0.001518   0.010302  5.304277e-08  4.135832e-08   0.000401  0.000401  0.000401    0.999908        0.005904  0.999912      0.005649         0.174281
12   0.002251     0.000560 -0.002248  -0.000558  3.156176e-06  2.460923e-06   0.003334  0.003334  0.003334    1.004538        0.219927  1.002955      0.179718         1.449469
13  -0.002011    -0.003472  0.002022   0.003481  1.075569e-05  8.386392e-06   0.005793  0.005793  0.005793    0.999803        0.252371  1.002955      0.179718         2.518750
14  -0.001747    -0.003157  0.001758   0.003166  1.175759e-05  9.167587e-06   0.005204  0.005204  0.005204    1.000733        0.312482  1.004538      0.219927         2.262476
15  -0.002629    -0.000250  0.002638   0.000256  8.466069e-06  6.601133e-06   0.003807  0.003807  0.003807    1.001175        0.069661  1.004609      0.194433         1.655355
16  -0.001028    -0.001012  0.001030   0.001013  1.820365e-06  1.419369e-06   0.002087  0.002087  0.002087    0.997784        0.110701  0.999370      0.100183         0.907436
--------------------------------------------------

TRAFO:
    p_hv_mw  q_hv_mvar   p_lv_mw  q_lv_mvar    pl_mw  ql_mvar   i_hv_ka   i_lv_ka  vm_hv_pu  va_hv_degree  vm_lv_pu  va_lv_degree  loading_percent
0 -0.007171   0.002057  0.007181  -0.001057  0.00001    0.001  0.000287  0.010477  0.999976      0.001876  0.999976      0.001877         0.074602
1 -0.006699   0.005487  0.006709  -0.004487  0.00001    0.001  0.000333  0.011651  0.999925      0.005125  0.999925      0.005128         0.086601
2 -0.001070   0.036546  0.001080  -0.032546  0.00001    0.004  0.000302  0.001253  1.000000      0.000000  1.000000      0.000005         0.091405
3  0.001194   0.038140 -0.001184  -0.034140  0.00001    0.004  0.000315  0.001315  1.000000      0.000000  1.000000      0.000005         0.095397
--------------------------------------------------
